data_primitive
_symmetry_cell_setting           triclinic
_symmetry_space_group_name_H-M   'P 1'
_symmetry_Int_Tables_number      1
loop_
_symmetry_equiv_pos_site_id
_symmetry_equiv_pos_as_xyz
1 x,y,z
_cell_length_a                   26.662
_cell_length_b                   26.662
_cell_length_c                   26.662
_cell_angle_alpha                90.0
_cell_angle_beta                 90.0
_cell_angle_gamma                90.0
_cell_volume                     18953
loop_
_atom_site_label
_atom_site_type_symbol
_atom_site_fract_x
_atom_site_fract_y
_atom_site_fract_z

Ru1 Ru 0.22011 0.50000 0.27989
Ru1 Ru 0.22011 0.50000 0.72011
Ru1 Ru 0.27989 0.77989 0.50000
Ru1 Ru 0.50000 0.27989 0.22011
Ru1 Ru 0.50000 0.27989 0.77989
Ru1 Ru 0.50000 0.72011 0.22011
Ru1 Ru 0.50000 0.72011 0.77989
Ru1 Ru 0.72011 0.22011 0.50000
Ru1 Ru 0.72011 0.50000 0.22011
Ru1 Ru 0.77989 0.50000 0.72011
Ru Ru 0.77989 0.72011 0.50000
Ru1 Ru 1.00000 0.22011 0.22011
Ru1 Ru 1.00000 0.22011 0.77989
Ru1 Ru 1.00000 0.77989 0.22011
Ru1 Ru 1.00000 0.77989 0.77989
Ru1 Ru 0.27989 1.00000 0.27989
Ru1 Ru 0.27989 1.00000 0.72011
Ru1 Ru 0.22011 0.22011 1.00000
Ru1 Ru 0.22011 0.22011 0.00000
Ru1 Ru 0.22011 0.77989 1.00000
Ru1 Ru 0.22011 0.77989 0.00000
Ru1 Ru 0.27989 0.00000 0.27989
Ru1 Ru 0.27989 0.00000 0.72011
Ru1 Ru 0.72011 1.00000 0.27989
Ru1 Ru 0.72011 1.00000 0.72011
Ru1 Ru 0.77989 0.22011 1.00000
Ru1 Ru 0.77989 0.22011 0.00000
Ru1 Ru 0.77989 0.77989 1.00000
Ru1 Ru 0.77989 0.77989 0.00000
Ru1 Ru 0.72011 0.00000 0.27989
Ru1 Ru 0.72011 0.00000 0.72011
Ru1 Ru 0.00000 0.22011 0.22011
Ru1 Ru 0.00000 0.22011 0.77989
Ru1 Ru 0.00000 0.77989 0.22011
Ru1 Ru 0.00000 0.77989 0.77989
Ru Ru 0.22011 0.27989 0.50000
Ru Ru 0.22011 0.72011 0.50000
Ru1 Ru 0.27989 0.22011 0.50000
Ru Ru 0.27989 0.50000 0.22011
Ru Ru 0.27989 0.50000 0.77989
Ru Ru 0.50000 0.22011 0.27989
Ru Ru 0.50000 0.22011 0.72011
Ru Ru 0.50000 0.77989 0.27989
Ru Ru 0.50000 0.77989 0.72011
Ru Ru 0.72011 0.50000 0.77989
Ru1 Ru 0.72011 0.77989 0.50000
Ru Ru 0.77989 0.27989 0.50000
Ru Ru 0.77989 0.50000 0.27989
Ru Ru 1.00000 0.27989 0.27989
Ru Ru 1.00000 0.27989 0.72011
Ru Ru 1.00000 0.72011 0.27989
Ru Ru 1.00000 0.72011 0.72011
Ru Ru 0.22011 1.00000 0.22011
Ru Ru 0.22011 1.00000 0.77989
Ru Ru 0.27989 0.27989 1.00000
Ru Ru 0.27989 0.27989 0.00000
Ru Ru 0.27989 0.72011 1.00000
Ru Ru 0.27989 0.72011 0.00000
Ru Ru 0.22011 0.00000 0.22011
Ru Ru 0.22011 0.00000 0.77989
Ru Ru 0.77989 1.00000 0.22011
Ru Ru 0.77989 1.00000 0.77989
Ru Ru 0.72011 0.27989 1.00000
Ru Ru 0.72011 0.27989 0.00000
Ru Ru 0.72011 0.72011 1.00000
Ru Ru 0.72011 0.72011 0.00000
Ru Ru 0.77989 0.00000 0.22011
Ru Ru 0.77989 0.00000 0.77989
Ru Ru 0.00000 0.27989 0.27989
Ru Ru 0.00000 0.27989 0.72011
Ru Ru 0.00000 0.72011 0.27989
Ru Ru 0.00000 0.72011 0.72011
N1 N 0.16400 0.50000 0.33600
N1 N 0.16400 0.50000 0.66400
N1 N 0.33600 0.16400 0.50000
N1 N 0.33600 0.83600 0.50000
N1 N 0.50000 0.33600 0.16400
N1 N 0.50000 0.33600 0.83600
N1 N 0.50000 0.66400 0.16400
N1 N 0.50000 0.66400 0.83600
N1 N 0.66400 0.16400 0.50000
N1 N 0.83600 0.50000 0.33600
N1 N 0.83600 0.50000 0.66400
N1 N 0.66400 0.83600 0.50000
N1 N 1.00000 0.16400 0.16400
N1 N 1.00000 0.16400 0.83600
N1 N 1.00000 0.83600 0.16400
N1 N 1.00000 0.83600 0.83600
N1 N 0.33600 1.00000 0.33600
N1 N 0.33600 1.00000 0.66400
N1 N 0.16400 0.16400 1.00000
N1 N 0.16400 0.16400 0.00000
N1 N 0.16400 0.83600 1.00000
N1 N 0.16400 0.83600 0.00000
N1 N 0.33600 0.00000 0.33600
N1 N 0.33600 0.00000 0.66400
N1 N 0.66400 1.00000 0.33600
N1 N 0.66400 1.00000 0.66400
N1 N 0.83600 0.16400 1.00000
N1 N 0.83600 0.16400 0.00000
N1 N 0.83600 0.83600 1.00000
N1 N 0.83600 0.83600 0.00000
N1 N 0.66400 0.00000 0.33600
N1 N 0.66400 0.00000 0.66400
N1 N 0.00000 0.16400 0.16400
N1 N 0.00000 0.16400 0.83600
N1 N 0.00000 0.83600 0.16400
N1 N 0.00000 0.83600 0.83600
N N 0.17170 0.50000 0.37970
N N 0.17170 0.50000 0.62030
N N 0.17927 0.50000 0.42258
N N 0.17927 0.50000 0.57742
N N 0.37970 0.17170 0.50000
N N 0.37970 0.82830 0.50000
N N 0.42258 0.17927 0.50000
N N 0.42258 0.82073 0.50000
N N 0.50000 0.32073 0.07742
N N 0.50000 0.32073 0.92258
N N 0.50000 0.32830 0.12030
N N 0.50000 0.32830 0.87970
N N 0.50000 0.67170 0.12030
N N 0.50000 0.67170 0.87970
N N 0.50000 0.67927 0.07742
N N 0.50000 0.67927 0.92258
N N 0.57742 0.17927 0.50000
N N 0.82073 0.50000 0.42258
N N 0.62030 0.17170 0.50000
N N 0.82830 0.50000 0.37970
N N 0.82830 0.50000 0.62030
N N 0.62030 0.82830 0.50000
N N 0.82073 0.50000 0.57742
N N 0.57742 0.82073 0.50000
N N 1.00000 0.07742 0.17927
N N 1.00000 0.12030 0.17170
N N 1.00000 0.07742 0.82073
N N 1.00000 0.12030 0.82830
N N 1.00000 0.87970 0.17170
N N 1.00000 0.92258 0.17927
N N 1.00000 0.87970 0.82830
N N 1.00000 0.92258 0.82073
N N 0.32073 1.00000 0.42258
N N 0.32830 1.00000 0.37970
N N 0.32073 1.00000 0.57742
N N 0.32830 1.00000 0.62030
N N 0.17170 0.12030 1.00000
N N 0.17927 0.07742 1.00000
N N 0.17170 0.12030 0.00000
N N 0.17927 0.07742 0.00000
N N 0.17170 0.87970 1.00000
N N 0.17927 0.92258 1.00000
N N 0.17170 0.87970 0.00000
N N 0.17927 0.92258 0.00000
N N 0.32073 0.00000 0.42258
N N 0.32830 0.00000 0.37970
N N 0.32073 0.00000 0.57742
N N 0.32830 0.00000 0.62030
N N 0.67170 1.00000 0.37970
N N 0.67927 1.00000 0.42258
N N 0.67170 1.00000 0.62030
N N 0.67927 1.00000 0.57742
N N 0.82073 0.07742 1.00000
N N 0.82830 0.12030 1.00000
N N 0.82073 0.07742 0.00000
N N 0.82830 0.12030 0.00000
N N 0.82830 0.87970 1.00000
N N 0.82073 0.92258 1.00000
N N 0.82830 0.87970 0.00000
N N 0.82073 0.92258 0.00000
N N 0.67170 0.00000 0.37970
N N 0.67927 0.00000 0.42258
N N 0.67170 0.00000 0.62030
N N 0.67927 0.00000 0.57742
N N 0.00000 0.07742 0.17927
N N 0.00000 0.12030 0.17170
N N 0.00000 0.07742 0.82073
N N 0.00000 0.12030 0.82830
N N 0.00000 0.87970 0.17170
N N 0.00000 0.92258 0.17927
N N 0.00000 0.87970 0.82830
N N 0.00000 0.92258 0.82073
C1 C 0.20406 0.20406 0.42593
C1 C 0.20406 0.20406 0.57407
C1 C 0.20406 0.42593 0.20406
C1 C 0.20406 0.42593 0.79594
C1 C 0.20406 0.57407 0.20406
C1 C 0.20406 0.57407 0.79594
C1 C 0.20406 0.79594 0.42593
C1 C 0.20406 0.79594 0.57407
C1 C 0.29594 0.29594 0.42593
C1 C 0.29594 0.29594 0.57407
C1 C 0.29594 0.42593 0.29594
C1 C 0.29594 0.42593 0.70406
C1 C 0.29594 0.57407 0.29594
C1 C 0.29594 0.57407 0.70406
C1 C 0.29594 0.70406 0.42593
C1 C 0.29594 0.70406 0.57407
C1 C 0.42593 0.20406 0.20406
C1 C 0.42593 0.20406 0.79594
C1 C 0.42593 0.29594 0.29594
C1 C 0.42593 0.29594 0.70406
C1 C 0.42593 0.70406 0.29594
C1 C 0.42593 0.70406 0.70406
C1 C 0.42593 0.79594 0.20406
C1 C 0.42593 0.79594 0.79594
C1 C 0.57407 0.20406 0.20406
C1 C 0.57407 0.20406 0.79594
C1 C 0.57407 0.29594 0.29594
C1 C 0.57407 0.29594 0.70406
C1 C 0.57407 0.70406 0.29594
C1 C 0.57407 0.70406 0.70406
C1 C 0.57407 0.79594 0.20406
C1 C 0.57407 0.79594 0.79594
C1 C 0.70406 0.29594 0.42593
C1 C 0.70406 0.29594 0.57407
C1 C 0.70406 0.42593 0.29594
C1 C 0.70406 0.42593 0.70406
C1 C 0.70406 0.57407 0.29594
C1 C 0.70406 0.57407 0.70406
C1 C 0.70406 0.70406 0.42593
C1 C 0.70406 0.70406 0.57407
C1 C 0.79594 0.20406 0.42593
C1 C 0.79594 0.20406 0.57407
C1 C 0.79594 0.42593 0.20406
C1 C 0.79594 0.42593 0.79594
C1 C 0.79594 0.57407 0.20406
C1 C 0.79594 0.57407 0.79594
C1 C 0.79594 0.79594 0.42593
C1 C 0.79594 0.79594 0.57407
C1 C 0.92593 0.20406 0.29594
C1 C 0.92593 0.29594 0.20406
C1 C 0.92593 0.20406 0.70406
C1 C 0.92593 0.29594 0.79594
C1 C 0.92593 0.70406 0.20406
C1 C 0.92593 0.79594 0.29594
C1 C 0.92593 0.70406 0.79594
C1 C 0.92593 0.79594 0.70406
C1 C 0.20406 0.92593 0.29594
C1 C 0.29594 0.92593 0.20406
C1 C 0.20406 0.92593 0.70406
C1 C 0.29594 0.92593 0.79594
C1 C 0.20406 0.29594 0.92593
C1 C 0.29594 0.20406 0.92593
C1 C 0.20406 0.29594 0.07407
C1 C 0.29594 0.20406 0.07407
C1 C 0.20406 0.70406 0.92593
C1 C 0.29594 0.79594 0.92593
C1 C 0.20406 0.70406 0.07407
C1 C 0.29594 0.79594 0.07407
C1 C 0.20406 0.07407 0.29594
C1 C 0.29594 0.07407 0.20406
C1 C 0.20406 0.07407 0.70406
C1 C 0.29594 0.07407 0.79594
C1 C 0.70406 0.92593 0.20406
C1 C 0.79594 0.92593 0.29594
C1 C 0.70406 0.92593 0.79594
C1 C 0.79594 0.92593 0.70406
C1 C 0.70406 0.20406 0.92593
C1 C 0.79594 0.29594 0.92593
C1 C 0.70406 0.20406 0.07407
C1 C 0.79594 0.29594 0.07407
C1 C 0.70406 0.79594 0.92593
C1 C 0.79594 0.70406 0.92593
C1 C 0.70406 0.79594 0.07407
C1 C 0.79594 0.70406 0.07407
C1 C 0.70406 0.07407 0.20406
C1 C 0.79594 0.07407 0.29594
C1 C 0.70406 0.07407 0.79594
C1 C 0.79594 0.07407 0.70406
C1 C 0.07407 0.20406 0.29594
C1 C 0.07407 0.29594 0.20406
C1 C 0.07407 0.20406 0.70406
C1 C 0.07407 0.29594 0.79594
C1 C 0.07407 0.70406 0.20406
C1 C 0.07407 0.79594 0.29594
C1 C 0.07407 0.70406 0.79594
C1 C 0.07407 0.79594 0.70406
C2 C 0.11067 0.17681 0.67681
C2 C 0.17681 0.11067 0.67681
C2 C 0.17681 0.17681 0.61067
C2 C 0.11067 0.32319 0.82319
C2 C 0.17681 0.32319 0.88933
C2 C 0.17681 0.38933 0.82319
C2 C 0.11067 0.67681 0.82319
C2 C 0.17681 0.61067 0.82319
C2 C 0.17681 0.67681 0.88933
C2 C 0.11067 0.82319 0.67681
C2 C 0.17681 0.82319 0.61067
C2 C 0.17681 0.88933 0.67681
C2 C 0.11067 0.82319 0.32319
C2 C 0.17681 0.82319 0.38933
C2 C 0.17681 0.88933 0.32319
C2 C 0.11067 0.17681 0.32319
C2 C 0.17681 0.11067 0.32319
C2 C 0.17681 0.17681 0.38933
C2 C 0.11067 0.32319 0.17681
C2 C 0.17681 0.32319 0.11067
C2 C 0.17681 0.38933 0.17681
C2 C 0.11067 0.67681 0.17681
C2 C 0.17681 0.61067 0.17681
C2 C 0.17681 0.67681 0.11067
C2 C 0.32319 0.11067 0.82319
C2 C 0.32319 0.17681 0.88933
C2 C 0.38933 0.17681 0.82319
C2 C 0.32319 0.32319 0.61067
C2 C 0.32319 0.38933 0.67681
C2 C 0.38933 0.32319 0.67681
C2 C 0.32319 0.11067 0.17681
C2 C 0.32319 0.17681 0.11067
C2 C 0.38933 0.17681 0.17681
C2 C 0.32319 0.82319 0.88933
C2 C 0.32319 0.88933 0.82319
C2 C 0.38933 0.82319 0.82319
C2 C 0.32319 0.61067 0.32319
C2 C 0.32319 0.67681 0.38933
C2 C 0.38933 0.67681 0.32319
C2 C 0.32319 0.82319 0.11067
C2 C 0.32319 0.88933 0.17681
C2 C 0.38933 0.82319 0.17681
C2 C 0.61067 0.17681 0.82319
C2 C 0.67681 0.11067 0.82319
C2 C 0.67681 0.17681 0.88933
C2 C 0.61067 0.32319 0.67681
C2 C 0.67681 0.32319 0.61067
C2 C 0.67681 0.38933 0.67681
C2 C 0.61067 0.82319 0.82319
C2 C 0.67681 0.82319 0.88933
C2 C 0.67681 0.88933 0.82319
C2 C 0.61067 0.67681 0.67681
C2 C 0.67681 0.61067 0.67681
C2 C 0.67681 0.67681 0.61067
C2 C 0.61067 0.67681 0.32319
C2 C 0.67681 0.61067 0.32319
C2 C 0.67681 0.67681 0.38933
C2 C 0.61067 0.82319 0.17681
C2 C 0.67681 0.82319 0.11067
C2 C 0.67681 0.88933 0.17681
C2 C 0.61067 0.32319 0.32319
C2 C 0.67681 0.32319 0.38933
C2 C 0.67681 0.38933 0.32319
C2 C 0.61067 0.17681 0.17681
C2 C 0.67681 0.11067 0.17681
C2 C 0.67681 0.17681 0.11067
C2 C 0.82319 0.61067 0.82319
C2 C 0.82319 0.67681 0.88933
C2 C 0.88933 0.67681 0.82319
C2 C 0.82319 0.82319 0.61067
C2 C 0.82319 0.88933 0.67681
C2 C 0.88933 0.82319 0.67681
C2 C 0.82319 0.11067 0.67681
C2 C 0.82319 0.17681 0.61067
C2 C 0.88933 0.17681 0.67681
C2 C 0.82319 0.82319 0.38933
C2 C 0.82319 0.88933 0.32319
C2 C 0.88933 0.82319 0.32319
C2 C 0.82319 0.11067 0.32319
C2 C 0.82319 0.17681 0.38933
C2 C 0.88933 0.17681 0.32319
C2 C 0.82319 0.61067 0.17681
C2 C 0.82319 0.67681 0.11067
C2 C 0.88933 0.67681 0.17681
C2 C 0.82319 0.32319 0.11067
C2 C 0.82319 0.38933 0.17681
C2 C 0.88933 0.32319 0.17681
C2 C 0.82319 0.32319 0.88933
C2 C 0.82319 0.38933 0.82319
C2 C 0.88933 0.32319 0.82319
C2 C 0.32319 0.32319 0.38933
C2 C 0.32319 0.38933 0.32319
C2 C 0.32319 0.61067 0.67681
C2 C 0.32319 0.67681 0.61067
C2 C 0.38933 0.32319 0.32319
C2 C 0.38933 0.67681 0.67681
O O 0.18238 0.24133 0.44697
O O 0.18238 0.24133 0.55303
O O 0.25867 0.31762 0.44697
O O 0.25867 0.31762 0.55303
O1 O 0.18238 0.44697 0.24133
O1 O 0.18238 0.44697 0.75867
O1 O 0.18238 0.55303 0.24133
O1 O 0.18238 0.55303 0.75867
O1 O 0.24133 0.81762 0.44697
O1 O 0.24133 0.81762 0.55303
O1 O 0.25867 0.44697 0.31762
O1 O 0.25867 0.44697 0.68238
O1 O 0.25867 0.55303 0.31762
O1 O 0.25867 0.55303 0.68238
O1 O 0.31762 0.74133 0.44697
O1 O 0.31762 0.74133 0.55303
O1 O 0.44697 0.24133 0.18238
O1 O 0.44697 0.24133 0.81762
O1 O 0.44697 0.31762 0.25867
O1 O 0.44697 0.31762 0.74133
O1 O 0.44697 0.68238 0.25867
O1 O 0.44697 0.68238 0.74133
O1 O 0.44697 0.75867 0.18238
O1 O 0.44697 0.75867 0.81762
O1 O 0.55303 0.24133 0.18238
O1 O 0.55303 0.24133 0.81762
O1 O 0.55303 0.31762 0.25867
O1 O 0.55303 0.31762 0.74133
O1 O 0.55303 0.68238 0.25867
O1 O 0.55303 0.68238 0.74133
O1 O 0.55303 0.75867 0.18238
O1 O 0.55303 0.75867 0.81762
O1 O 0.68238 0.25867 0.44697
O1 O 0.68238 0.25867 0.55303
O1 O 0.68238 0.44697 0.25867
O1 O 0.68238 0.55303 0.25867
O1 O 0.74133 0.44697 0.68238
O1 O 0.74133 0.55303 0.68238
O O 0.74133 0.68238 0.44697
O O 0.74133 0.68238 0.55303
O1 O 0.75867 0.18238 0.44697
O1 O 0.75867 0.18238 0.55303
O1 O 0.75867 0.44697 0.18238
O1 O 0.75867 0.55303 0.18238
O1 O 0.81762 0.44697 0.75867
O1 O 0.81762 0.55303 0.75867
O O 0.81762 0.75867 0.44697
O O 0.81762 0.75867 0.55303
O1 O 0.94697 0.18238 0.25867
O1 O 0.94697 0.25867 0.18238
O1 O 0.94697 0.18238 0.74133
O1 O 0.94697 0.25867 0.81762
O1 O 0.94697 0.74133 0.18238
O1 O 0.94697 0.81762 0.25867
O1 O 0.94697 0.74133 0.81762
O1 O 0.94697 0.81762 0.74133
O1 O 0.24133 0.94697 0.31762
O1 O 0.31762 0.94697 0.24133
O1 O 0.24133 0.94697 0.68238
O1 O 0.31762 0.94697 0.75867
O1 O 0.18238 0.25867 0.94697
O1 O 0.25867 0.18238 0.94697
O1 O 0.18238 0.25867 0.05303
O1 O 0.25867 0.18238 0.05303
O1 O 0.18238 0.74133 0.94697
O1 O 0.25867 0.81762 0.94697
O1 O 0.18238 0.74133 0.05303
O1 O 0.25867 0.81762 0.05303
O1 O 0.24133 0.05303 0.31762
O1 O 0.31762 0.05303 0.24133
O1 O 0.24133 0.05303 0.68238
O1 O 0.31762 0.05303 0.75867
O1 O 0.68238 0.94697 0.24133
O1 O 0.75867 0.94697 0.31762
O1 O 0.68238 0.94697 0.75867
O1 O 0.75867 0.94697 0.68238
O1 O 0.74133 0.18238 0.94697
O1 O 0.81762 0.25867 0.94697
O1 O 0.74133 0.18238 0.05303
O1 O 0.81762 0.25867 0.05303
O1 O 0.74133 0.81762 0.94697
O1 O 0.81762 0.74133 0.94697
O1 O 0.74133 0.81762 0.05303
O1 O 0.81762 0.74133 0.05303
O1 O 0.68238 0.05303 0.24133
O1 O 0.75867 0.05303 0.31762
O1 O 0.68238 0.05303 0.75867
O1 O 0.75867 0.05303 0.68238
O1 O 0.05303 0.18238 0.25867
O1 O 0.05303 0.25867 0.18238
O1 O 0.05303 0.18238 0.74133
O1 O 0.05303 0.25867 0.81762
O1 O 0.05303 0.74133 0.18238
O1 O 0.05303 0.81762 0.25867
O1 O 0.05303 0.74133 0.81762
O1 O 0.05303 0.81762 0.74133
O O 0.18238 0.75867 0.44697
O O 0.18238 0.75867 0.55303
O1 O 0.24133 0.18238 0.44697
O1 O 0.24133 0.18238 0.55303
O O 0.24133 0.44697 0.18238
O O 0.24133 0.44697 0.81762
O O 0.24133 0.55303 0.18238
O O 0.24133 0.55303 0.81762
O O 0.25867 0.68238 0.44697
O O 0.25867 0.68238 0.55303
O1 O 0.31762 0.25867 0.44697
O1 O 0.31762 0.25867 0.55303
O O 0.31762 0.44697 0.25867
O O 0.31762 0.44697 0.74133
O O 0.31762 0.55303 0.25867
O O 0.31762 0.55303 0.74133
O O 0.44697 0.18238 0.24133
O O 0.44697 0.18238 0.75867
O O 0.44697 0.25867 0.31762
O O 0.44697 0.25867 0.68238
O O 0.44697 0.74133 0.31762
O O 0.44697 0.74133 0.68238
O O 0.44697 0.81762 0.24133
O O 0.44697 0.81762 0.75867
O O 0.55303 0.18238 0.24133
O O 0.55303 0.18238 0.75867
O O 0.55303 0.25867 0.31762
O O 0.55303 0.25867 0.68238
O O 0.55303 0.74133 0.31762
O O 0.55303 0.74133 0.68238
O O 0.55303 0.81762 0.24133
O O 0.55303 0.81762 0.75867
O O 0.68238 0.44697 0.74133
O O 0.68238 0.55303 0.74133
O1 O 0.68238 0.74133 0.44697
O1 O 0.68238 0.74133 0.55303
O O 0.74133 0.31762 0.44697
O O 0.74133 0.31762 0.55303
O O 0.74133 0.44697 0.31762
O O 0.74133 0.55303 0.31762
O O 0.75867 0.44697 0.81762
O O 0.75867 0.55303 0.81762
O1 O 0.75867 0.81762 0.44697
O1 O 0.75867 0.81762 0.55303
O O 0.81762 0.24133 0.44697
O O 0.81762 0.24133 0.55303
O O 0.81762 0.44697 0.24133
O O 0.81762 0.55303 0.24133
O O 0.94697 0.24133 0.31762
O O 0.94697 0.31762 0.24133
O O 0.94697 0.24133 0.68238
O O 0.94697 0.31762 0.75867
O O 0.94697 0.68238 0.24133
O O 0.94697 0.75867 0.31762
O O 0.94697 0.68238 0.75867
O O 0.94697 0.75867 0.68238
O O 0.18238 0.94697 0.25867
O O 0.25867 0.94697 0.18238
O O 0.18238 0.94697 0.74133
O O 0.25867 0.94697 0.81762
O O 0.24133 0.31762 0.94697
O O 0.31762 0.24133 0.94697
O O 0.24133 0.31762 0.05303
O O 0.31762 0.24133 0.05303
O O 0.24133 0.68238 0.94697
O O 0.31762 0.75867 0.94697
O O 0.24133 0.68238 0.05303
O O 0.31762 0.75867 0.05303
O O 0.18238 0.05303 0.25867
O O 0.25867 0.05303 0.18238
O O 0.18238 0.05303 0.74133
O O 0.25867 0.05303 0.81762
O O 0.74133 0.94697 0.18238
O O 0.81762 0.94697 0.25867
O O 0.74133 0.94697 0.81762
O O 0.81762 0.94697 0.74133
O O 0.68238 0.24133 0.94697
O O 0.75867 0.31762 0.94697
O O 0.68238 0.24133 0.05303
O O 0.75867 0.31762 0.05303
O O 0.68238 0.75867 0.94697
O O 0.75867 0.68238 0.94697
O O 0.68238 0.75867 0.05303
O O 0.75867 0.68238 0.05303
O O 0.74133 0.05303 0.18238
O O 0.81762 0.05303 0.25867
O O 0.74133 0.05303 0.81762
O O 0.81762 0.05303 0.74133
O O 0.05303 0.24133 0.31762
O O 0.05303 0.31762 0.24133
O O 0.05303 0.24133 0.68238
O O 0.05303 0.31762 0.75867
O O 0.05303 0.68238 0.24133
O O 0.05303 0.75867 0.31762
O O 0.05303 0.68238 0.75867
O O 0.05303 0.75867 0.68238
C C 0.13395 0.13395 0.29980
C C 0.13395 0.13395 0.70020
C C 0.13395 0.20020 0.36605
C C 0.13395 0.20020 0.63395
C C 0.13395 0.29980 0.13395
C C 0.13395 0.29980 0.86605
C C 0.13395 0.36605 0.20020
C C 0.13395 0.36605 0.79980
C C 0.13395 0.63395 0.20020
C C 0.13395 0.63395 0.79980
C C 0.13395 0.70020 0.13395
C C 0.13395 0.70020 0.86605
C C 0.13395 0.79980 0.36605
C C 0.13395 0.79980 0.63395
C C 0.13395 0.86605 0.29980
C C 0.13395 0.86605 0.70020
C C 0.20020 0.13395 0.36605
C C 0.20020 0.13395 0.63395
C C 0.20020 0.36605 0.13395
C C 0.20020 0.36605 0.86605
C C 0.20020 0.63395 0.13395
C C 0.20020 0.63395 0.86605
C C 0.20020 0.86605 0.36605
C C 0.20020 0.86605 0.63395
C C 0.29980 0.13395 0.13395
C C 0.29980 0.13395 0.86605
C C 0.29980 0.36605 0.36605
C C 0.29980 0.36605 0.63395
C C 0.29980 0.63395 0.36605
C C 0.29980 0.63395 0.63395
C C 0.29980 0.86605 0.13395
C C 0.29980 0.86605 0.86605
C C 0.36605 0.13395 0.20020
C C 0.36605 0.13395 0.79980
C C 0.36605 0.20020 0.13395
C C 0.36605 0.20020 0.86605
C C 0.36605 0.29980 0.36605
C C 0.36605 0.29980 0.63395
C C 0.36605 0.36605 0.29980
C C 0.36605 0.36605 0.70020
C C 0.36605 0.63395 0.29980
C C 0.36605 0.63395 0.70020
C C 0.36605 0.70020 0.36605
C C 0.36605 0.70020 0.63395
C C 0.36605 0.79980 0.13395
C C 0.36605 0.79980 0.86605
C C 0.36605 0.86605 0.20020
C C 0.36605 0.86605 0.79980
C C 0.63395 0.13395 0.20020
C C 0.63395 0.13395 0.79980
C C 0.63395 0.20020 0.13395
C C 0.63395 0.20020 0.86605
C C 0.63395 0.29980 0.36605
C C 0.63395 0.29980 0.63395
C C 0.63395 0.36605 0.29980
C C 0.63395 0.36605 0.70020
C C 0.63395 0.63395 0.29980
C C 0.63395 0.63395 0.70020
C C 0.63395 0.70020 0.36605
C C 0.63395 0.70020 0.63395
C C 0.63395 0.79980 0.13395
C C 0.63395 0.79980 0.86605
C C 0.63395 0.86605 0.20020
C C 0.63395 0.86605 0.79980
C C 0.70020 0.13395 0.13395
C C 0.70020 0.13395 0.86605
C C 0.70020 0.36605 0.36605
C C 0.70020 0.36605 0.63395
C C 0.70020 0.63395 0.36605
C C 0.70020 0.63395 0.63395
C C 0.70020 0.86605 0.13395
C C 0.70020 0.86605 0.86605
C C 0.79980 0.13395 0.36605
C C 0.79980 0.13395 0.63395
C C 0.79980 0.36605 0.13395
C C 0.79980 0.36605 0.86605
C C 0.79980 0.63395 0.13395
C C 0.79980 0.63395 0.86605
C C 0.79980 0.86605 0.36605
C C 0.79980 0.86605 0.63395
C C 0.86605 0.13395 0.29980
C C 0.86605 0.13395 0.70020
C C 0.86605 0.20020 0.36605
C C 0.86605 0.20020 0.63395
C C 0.86605 0.29980 0.13395
C C 0.86605 0.29980 0.86605
C C 0.86605 0.36605 0.20020
C C 0.86605 0.36605 0.79980
C C 0.86605 0.63395 0.20020
C C 0.86605 0.63395 0.79980
C C 0.86605 0.70020 0.13395
C C 0.86605 0.70020 0.86605
C C 0.86605 0.79980 0.36605
C C 0.86605 0.79980 0.63395
C C 0.86605 0.86605 0.29980
C C 0.86605 0.86605 0.70020
H H 0.11936 0.11936 0.26696
H H 0.11936 0.11936 0.73304
H H 0.11936 0.23304 0.38064
H H 0.11936 0.23304 0.61936
H H 0.11936 0.26696 0.11936
H H 0.11936 0.26696 0.88064
H H 0.11936 0.38064 0.23304
H H 0.11936 0.38064 0.76696
H H 0.11936 0.61936 0.23304
H H 0.11936 0.61936 0.76696
H H 0.11936 0.73304 0.11936
H H 0.11936 0.73304 0.88064
H H 0.11936 0.76696 0.38064
H H 0.11936 0.76696 0.61936
H H 0.11936 0.88064 0.26696
H H 0.11936 0.88064 0.73304
H H 0.23304 0.11936 0.38064
H H 0.23304 0.11936 0.61936
H H 0.23304 0.38064 0.11936
H H 0.23304 0.38064 0.88064
H H 0.23304 0.61936 0.11936
H H 0.23304 0.61936 0.88064
H H 0.23304 0.88064 0.38064
H H 0.23304 0.88064 0.61936
H H 0.26696 0.11936 0.11936
H H 0.26696 0.11936 0.88064
H H 0.26696 0.38064 0.38064
H H 0.26696 0.38064 0.61936
H H 0.26696 0.61936 0.38064
H H 0.26696 0.61936 0.61936
H H 0.26696 0.88064 0.11936
H H 0.26696 0.88064 0.88064
H H 0.38064 0.11936 0.23304
H H 0.38064 0.11936 0.76696
H H 0.38064 0.23304 0.11936
H H 0.38064 0.23304 0.88064
H H 0.38064 0.26696 0.38064
H H 0.38064 0.26696 0.61936
H H 0.38064 0.38064 0.26696
H H 0.38064 0.38064 0.73304
H H 0.38064 0.61936 0.26696
H H 0.38064 0.61936 0.73304
H H 0.38064 0.73304 0.38064
H H 0.38064 0.73304 0.61936
H H 0.38064 0.76696 0.11936
H H 0.38064 0.76696 0.88064
H H 0.38064 0.88064 0.23304
H H 0.38064 0.88064 0.76696
H H 0.61936 0.11936 0.23304
H H 0.61936 0.11936 0.76696
H H 0.61936 0.23304 0.11936
H H 0.61936 0.23304 0.88064
H H 0.61936 0.26696 0.38064
H H 0.61936 0.26696 0.61936
H H 0.61936 0.38064 0.26696
H H 0.61936 0.38064 0.73304
H H 0.61936 0.61936 0.26696
H H 0.61936 0.61936 0.73304
H H 0.61936 0.73304 0.38064
H H 0.61936 0.73304 0.61936
H H 0.61936 0.76696 0.11936
H H 0.61936 0.76696 0.88064
H H 0.61936 0.88064 0.23304
H H 0.61936 0.88064 0.76696
H H 0.73304 0.11936 0.11936
H H 0.73304 0.11936 0.88064
H H 0.73304 0.38064 0.38064
H H 0.73304 0.38064 0.61936
H H 0.73304 0.61936 0.38064
H H 0.73304 0.61936 0.61936
H H 0.73304 0.88064 0.11936
H H 0.73304 0.88064 0.88064
H H 0.76696 0.11936 0.38064
H H 0.76696 0.11936 0.61936
H H 0.76696 0.38064 0.11936
H H 0.76696 0.38064 0.88064
H H 0.76696 0.61936 0.11936
H H 0.76696 0.61936 0.88064
H H 0.76696 0.88064 0.38064
H H 0.76696 0.88064 0.61936
H H 0.88064 0.11936 0.26696
H H 0.88064 0.11936 0.73304
H H 0.88064 0.23304 0.38064
H H 0.88064 0.23304 0.61936
H H 0.88064 0.26696 0.11936
H H 0.88064 0.26696 0.88064
H H 0.88064 0.38064 0.23304
H H 0.88064 0.38064 0.76696
H H 0.88064 0.61936 0.23304
H H 0.88064 0.61936 0.76696
H H 0.88064 0.73304 0.11936
H H 0.88064 0.73304 0.88064
H H 0.88064 0.76696 0.38064
H H 0.88064 0.76696 0.61936
H H 0.88064 0.88064 0.26696
H H 0.88064 0.88064 0.73304
